3
Lattice="11.5901728267 0.0 0.0 1.0563127214128827e-15 17.2508958852 0.0 3.270110735885666e-16 3.270110735885666e-16 5.34049611392" Properties=species:S:1:pos:R:3:floats_1:R:3:floats_0:R:3 float_0=1.0 pbc="F F F" str_0=0_first float_2=1.0 str_1=1_first float_1=0.11
O      19.03752283      26.33810589       0.37816000       0.10285504       0.04414907       0.55806446       0.69065940       0.13205718       0.52675056 
H      17.92548283      28.26982589      -0.83554000       0.50105383       0.98460262       0.65505045       0.28597973       0.83549557       0.51214915 
C      19.67577283      27.53683589       5.48988611       0.82220972       0.81215516       0.01162418       0.17710184       0.08838081       0.80992866 
3
Lattice="11.5901728267 0.0 0.0 1.0563127214128827e-15 17.2508958852 0.0 3.270110735885666e-16 3.270110735885666e-16 5.34049611392" Properties=species:S:1:pos:R:3:floats_1:R:3:floats_0:R:3 float_0=2.0 pbc="F F F" str_0=0_second float_2=10.0 str_1=1_second float_1=0.21
O      19.03752283      26.33810589       0.37816000       0.10411954       0.56543702       0.28403888       0.79304154       0.80421911       0.25866395 
H      17.92548283      28.26982589      -0.83554000       0.39024267       0.69821782       0.01793306       0.18173206       0.71461620       0.31010644 
C      13.75928283      23.96734589       5.86778611       0.37796407       0.16458822       0.98682163       0.02314066       0.33489424       0.08284351 
3
Lattice="5.15269801777 0.0 0.0 7.283371360465262e-16 11.8946480986 0.0 1.0133901448662751e-15 1.0133901448662751e-15 16.549917014" Properties=species:S:1:pos:R:3:floats_1:R:3:floats_0:R:3 float_0=3.0 pbc="F F F" str_0=0_third float_2=100.0 str_1=1_third float_1=0.31
O       8.50246802      17.23366810       9.14058000       0.83212204       0.46945431       0.32228089       0.20868545       0.70276168       0.33424871 
C       7.88626802      17.94722810      10.14447000       0.89472058       0.36244220       0.90270378       0.27066482       0.71899946       0.54904010 
H       8.98081802      19.68981810       9.56462000       0.33330144       0.22854305       0.46368260       0.41984144       0.89056484       0.97967350 
